/*--------------------------------*- C++ -*----------------------------------*\
| =========                 |                                                 |
| \\      /  F ield         | OpenFOAM: The Open Source CFD Toolbox           |
|  \\    /   O peration     | Version:  3.0.1                                 |
|   \\  /    A nd           | Web:      www.OpenFOAM.org                      |
|    \\/     M anipulation  |                                                 |
\*---------------------------------------------------------------------------*/
FoamFile
{
    version     2.0;
    format      ascii;
    class       volScalarField;
    object      p;
}
// * * * * * * * * * * * * * * * * * * * * * * * * * * * * * * * * * * * * * //

dimensions      [0 2 -2 0 0 0 0];

internalField   uniform 0;

boundaryField
{
    wedge_1
    {
        type            wedge;
    }

    wedge_2
    {
        type            wedge;
    }

    channelWall
    {
        type            zeroGradient;
    }

    inlet
    {
        type            fixedValue;
        value           uniform 1e-3;
    }

    outlet
    {
        type            fixedValue;
        value           uniform 0;
    }

    defaultFaces
    {
        type            zeroGradient;
    }
}

// ************************************************************************* //
