/*--------------------------------*- C++ -*----------------------------------*\
  =========                 |
  \\      /  F ield         | OpenFOAM: The Open Source CFD Toolbox
   \\    /   O peration     | Website:  https://openfoam.org
    \\  /    A nd           | Version:  9
     \\/     M anipulation  |
\*---------------------------------------------------------------------------*/
FoamFile
{
    format      ascii;
    class       volScalarField;
    object      p_rgh;
}
// * * * * * * * * * * * * * * * * * * * * * * * * * * * * * * * * * * * * * //

dimensions      [ 1 -1 -2 0 0 0 0 ];

internalField   uniform 0;

boundaryField
{
    #includeEtc "caseDicts/setConstraintTypes"

    back
    {
        //type            empty;
        type			symmetry;
    }

    front
    {
        //type            empty;
    	type			symmetry;
    }

    left
    {
        type            fixedValue;
        value           uniform 0;

//         type            totalPressure;
//         phi             rhoPhi;
//         p0              $internalField;
//         value           $internalField;
    }

    right
    {
        type            fixedFluxPressure;
        value           uniform 0;

//         type            calculated;
//         value           $internalField;

//         type            uniformFixedValue;
//         uniformValue    table
//         (
//             (0          1e5)
//             (0.1        1e5)
//             (0.100001   100400)
//             (10.0       100400)
//         );

//         type            uniformTotalPressure;
//         U               U;
//         phi             rhoPhi;
//         rho             rho;
// 
//         p0              table
//         (
//             (0          1e5)
//             (0.1        1e5)
//             (0.11       100010)
//             (10.0       100010)
//         );

//         type            codedFixedValue;
//         value           $internalField;
//         redirectType    perturbationOnInfOpen;

//         type            totalPressure;
//         phi             rhoPhi;
//         p0              100100;
//         value           100100;
    }

    splittedChannelWalls
    {
        type            fixedFluxPressure;
        value           uniform 0;
    }
}


// ************************************************************************* //
