/*--------------------------------*- C++ -*----------------------------------*\
| =========                 |                                                 |
| \\      /  F ield         | OpenFOAM: The Open Source CFD Toolbox           |
|  \\    /   O peration     | Version:  3.0.1                                 |
|   \\  /    A nd           | Web:      www.OpenFOAM.org                      |
|    \\/     M anipulation  |                                                 |
\*---------------------------------------------------------------------------*/
FoamFile
{
    version     2.0;
    format      ascii;
    class       volVectorField;
    object      U;
}
// * * * * * * * * * * * * * * * * * * * * * * * * * * * * * * * * * * * * * //

dimensions      [0 1 -1 0 0 0 0];

internalField   uniform (0 0 0);

boundaryField
{
    skeletonWall
    {
        type            fixedValue;
        value           uniform (0 0 0);
    }

    cyclicLeftSide
    {
        type            cyclicAMI;
    }
    cyclicRightSide
    {
        type            cyclicAMI;
    }

    oppositeSide
    {
        type            fixedValue;
        value           uniform (0 -1e-4 0);
    }
    frontSide
    {
        type            fixedValue;
        value           uniform (0 -5e-5 0);
    }

    cyclicTopSide
    {
        type            cyclicAMI;
    }
    cyclicBottomSide
    {
        type            cyclicAMI;
    }
}

// ************************************************************************* //
