/*--------------------------------*- C++ -*----------------------------------*\
| =========                 |                                                 |
| \\      /  F ield         | OpenFOAM: The Open Source CFD Toolbox           |
|  \\    /   O peration     | Version:                                        |
|   \\  /    A nd           | Web:      www.OpenFOAM.org                      |
|    \\/     M anipulation  |                                                 |
\*---------------------------------------------------------------------------*/
FoamFile
{
    version     2.0;
    format      ascii;
    class       volVectorField;
    object      U;
}
// * * * * * * * * * * * * * * * * * * * * * * * * * * * * * * * * * * * * * //

dimensions      [0 1 -1 0 0 0 0];

internalField   uniform (0 0 0);

boundaryField
{
    skeletonWall
    {
        type            noSlip;
    }

    cyclicLeftSide
    {
        type            cyclicAMI;
//         type                flowRateInletVelocity;
//         volumetricFlowRate  1e-9;
//         extrapolateProfile  yes;
//         value               uniform (0 0 0);
    }
    cyclicRightSide
    {
        type            cyclicAMI;
//         type            zeroGradient;
    }

    cyclicOppositeSide
    {
        type            cyclicAMI;
    }
    cyclicFrontSide
    {
        type            cyclicAMI;
    }

    cyclicTopSide
    {
        type            cyclicAMI;
    }
    cyclicBottomSide
    {
        type            cyclicAMI;
    }
}

// ************************************************************************* //
